ZINC36276925
  -OEChem-07121213353D

 32 35  0     0  0  0  0  0  0999 V2000
    0.7782    1.7608   -0.3901 C   0  0  0  0  0  0  0  0  0  0  0  0
    1.0264    1.8713    1.1375 C   0  0  0  0  0  0  0  0  0  0  0  0
    0.7705    0.4152    1.6003 C   0  0  0  0  0  0  0  0  0  0  0  0
    1.3128   -0.4257    0.5176 N   0  0  0  0  0  0  0  0  0  0  0  0
    1.3203    0.3559   -0.7277 C   0  0  0  0  0  0  0  0  0  0  0  0
    1.7439   -1.7331    0.6513 C   0  0  0  0  0  0  0  0  0  0  0  0
    0.8640   -2.8151    0.3731 C   0  0  0  0  0  0  0  0  0  0  0  0
   -0.5397   -2.7627   -0.0679 C   0  0  0  0  0  0  0  0  0  0  0  0
   -1.1585   -3.9379   -0.2633 C   0  0  0  0  0  0  0  0  0  0  0  0
    0.0631   -5.1733    0.1162 S   0  0  0  0  0  0  0  0  0  0  0  0
    1.4081   -4.1009    0.5415 C   0  0  0  0  0  0  0  0  0  0  0  0
    2.6562   -4.2759    0.9334 N   0  0  0  0  0  0  0  0  0  0  0  0
    3.4281   -3.2330    1.1775 C   0  0  0  0  0  0  0  0  0  0  0  0
    2.9831   -1.9960    1.0348 N   0  0  0  0  0  0  0  0  0  0  0  0
    5.0660   -3.4915    1.6914 Cl  0  0  0  0  0  0  0  0  0  0  0  0
   -2.5865   -3.7620   -0.7063 C   0  0  0  0  0  0  0  0  0  0  0  0
   -2.9246   -2.2973   -0.3517 C   0  0  0  0  0  0  0  0  0  0  0  0
   -1.5314   -1.6387   -0.3820 C   0  0  0  0  0  0  0  0  0  0  0  0
   -0.2866    1.8272   -0.6136 H   0  0  0  0  0  0  0  0  0  0  0  0
    1.3348    2.5284   -0.9277 H   0  0  0  0  0  0  0  0  0  0  0  0
    2.0530    2.1727    1.3457 H   0  0  0  0  0  0  0  0  0  0  0  0
    0.3177    2.5584    1.5998 H   0  0  0  0  0  0  0  0  0  0  0  0
    1.2957    0.2162    2.5344 H   0  0  0  0  0  0  0  0  0  0  0  0
   -0.2982    0.2374    1.7196 H   0  0  0  0  0  0  0  0  0  0  0  0
    0.6786   -0.1209   -1.4685 H   0  0  0  0  0  0  0  0  0  0  0  0
    2.3379    0.4334   -1.1105 H   0  0  0  0  0  0  0  0  0  0  0  0
   -2.6740   -3.9233   -1.7807 H   0  0  0  0  0  0  0  0  0  0  0  0
   -3.2399   -4.4453   -0.1638 H   0  0  0  0  0  0  0  0  0  0  0  0
   -3.5813   -1.8559   -1.1014 H   0  0  0  0  0  0  0  0  0  0  0  0
   -3.3672   -2.2285    0.6419 H   0  0  0  0  0  0  0  0  0  0  0  0
   -1.4674   -0.8570    0.3748 H   0  0  0  0  0  0  0  0  0  0  0  0
   -1.3315   -1.2249   -1.3704 H   0  0  0  0  0  0  0  0  0  0  0  0
  1  5  1  0  0  0  0
  1  2  1  0  0  0  0
  1 19  1  0  0  0  0
  1 20  1  0  0  0  0
  2  3  1  0  0  0  0
  2 21  1  0  0  0  0
  2 22  1  0  0  0  0
  3  4  1  0  0  0  0
  3 23  1  0  0  0  0
  3 24  1  0  0  0  0
  4  5  1  0  0  0  0
  4  6  1  0  0  0  0
  5 25  1  0  0  0  0
  5 26  1  0  0  0  0
  6 14  2  0  0  0  0
  6  7  1  0  0  0  0
  7 11  2  0  0  0  0
  7  8  1  0  0  0  0
  8 18  1  0  0  0  0
  8  9  2  0  0  0  0
  9 10  1  0  0  0  0
  9 16  1  0  0  0  0
 10 11  1  0  0  0  0
 11 12  1  0  0  0  0
 12 13  2  0  0  0  0
 13 14  1  0  0  0  0
 13 15  1  0  0  0  0
 16 17  1  0  0  0  0
 16 27  1  0  0  0  0
 16 28  1  0  0  0  0
 17 18  1  0  0  0  0
 17 29  1  0  0  0  0
 17 30  1  0  0  0  0
 18 31  1  0  0  0  0
 18 32  1  0  0  0  0
M  END